data_image0
_cell_length_a       20.955
_cell_length_b       20.955
_cell_length_c       20.955
_cell_angle_alpha    90
_cell_angle_beta     90
_cell_angle_gamma    90

_symmetry_space_group_name_H-M    "P 1"
_symmetry_int_tables_number       1

loop_
  _symmetry_equiv_pos_as_xyz
  'x, y, z'

loop_
  _atom_site_label
  _atom_site_occupancy
  _atom_site_fract_x
  _atom_site_fract_y
  _atom_site_fract_z
  _atom_site_thermal_displace_type
  _atom_site_B_iso_or_equiv
  _atom_site_type_symbol
  Zr1      1.0000 0.00000  0.00000  0.12370  Biso   1.000  Zr
  Zr2      1.0000 0.12370  0.00000  0.00000  Biso   1.000  Zr
  O1       1.0000 0.07120  0.07120  0.07120  Biso   1.000  O 
  Zr3      1.0000 0.00000  0.12370  0.00000  Biso   1.000  Zr
  O2       1.0000 0.09880  0.17430  0.00000  Biso   1.000  O 
  C1       1.0000 0.15630  0.15630  0.00000  Biso   1.000  C 
  C2       1.0000 0.20330  0.20330  0.00000  Biso   1.000  C 
  C3       1.0000 0.26260  0.18510  0.00000  Biso   1.000  C 
  H1       1.0000 0.27514  0.13467  0.00000  Biso   1.000  H 
  C4       1.0000 0.31490  0.23740  0.00000  Biso   1.000  C 
  H2       1.0000 0.36533  0.22485  0.00000  Biso   1.000  H 
  C5       1.0000 0.29670  0.29670  0.00000  Biso   1.000  C 
  C6       1.0000 0.23740  0.31490  0.00000  Biso   1.000  C 
  H3       1.0000 0.22485  0.36533  0.00000  Biso   1.000  H 
  C7       1.0000 0.18510  0.26260  0.00000  Biso   1.000  C 
  H4       1.0000 0.13467  0.27514  0.00000  Biso   1.000  H 
  C8       1.0000 0.34370  0.34370  0.00000  Biso   1.000  C 
  O3       1.0000 0.32570  0.40120  0.00000  Biso   1.000  O 
  Zr4      1.0000 0.37630  0.50000  0.00000  Biso   1.000  Zr
  O4       1.0000 0.42880  0.42880  0.07120  Biso   1.000  O 
  Zr5      1.0000 0.50000  0.50000  0.12370  Biso   1.000  Zr
  O5       1.0000 0.40120  0.50000  0.17430  Biso   1.000  O 
  C9       1.0000 0.34370  0.50000  0.15630  Biso   1.000  C 
  C10      1.0000 0.29670  0.50000  0.20330  Biso   1.000  C 
  C11      1.0000 0.31490  0.50000  0.26260  Biso   1.000  C 
  H5       1.0000 0.36533  0.50000  0.27514  Biso   1.000  H 
  C12      1.0000 0.26260  0.50000  0.31490  Biso   1.000  C 
  H6       1.0000 0.27514  0.50000  0.36533  Biso   1.000  H 
  C13      1.0000 0.20330  0.50000  0.29670  Biso   1.000  C 
  C14      1.0000 0.18510  0.50000  0.23740  Biso   1.000  C 
  H7       1.0000 0.13467  0.50000  0.22485  Biso   1.000  H 
  C15      1.0000 0.23740  0.50000  0.18510  Biso   1.000  C 
  H8       1.0000 0.22485  0.50000  0.13467  Biso   1.000  H 
  C16      1.0000 0.15630  0.50000  0.34370  Biso   1.000  C 
  O6       1.0000 0.09880  0.50000  0.32570  Biso   1.000  O 
  Zr6      1.0000 0.00000  0.50000  0.37630  Biso   1.000  Zr
  O7       1.0000 0.00000  0.40120  0.32570  Biso   1.000  O 
  C17      1.0000 0.00000  0.34370  0.34370  Biso   1.000  C 
  C18      1.0000 0.00000  0.29670  0.29670  Biso   1.000  C 
  C19      1.0000 0.00000  0.23740  0.31490  Biso   1.000  C 
  H9       1.0000 0.00000  0.22485  0.36533  Biso   1.000  H 
  C20      1.0000 0.00000  0.18510  0.26260  Biso   1.000  C 
  H10      1.0000 0.00000  0.13467  0.27514  Biso   1.000  H 
  C21      1.0000 0.00000  0.20330  0.20330  Biso   1.000  C 
  C22      1.0000 0.00000  0.26260  0.18510  Biso   1.000  C 
  H11      1.0000 0.00000  0.27514  0.13467  Biso   1.000  H 
  C23      1.0000 0.00000  0.31490  0.23740  Biso   1.000  C 
  H12      1.0000 0.00000  0.36533  0.22485  Biso   1.000  H 
  C24      1.0000 0.00000  0.15630  0.15630  Biso   1.000  C 
  O8       1.0000 0.00000  0.17430  0.09880  Biso   1.000  O 
  O9       1.0000 0.00000  0.09880  0.17430  Biso   1.000  O 
  O10      1.0000 0.00000  0.32570  0.40120  Biso   1.000  O 
  Zr7      1.0000 0.00000  0.37630  0.50000  Biso   1.000  Zr
  O11      1.0000 0.07120  0.42880  0.42880  Biso   1.000  O 
  Zr8      1.0000 0.12370  0.50000  0.50000  Biso   1.000  Zr
  O12      1.0000 0.07120  0.42880  0.57120  Biso   1.000  O 
  Zr9      1.0000 0.00000  0.50000  0.62370  Biso   1.000  Zr
  O13      1.0000 0.00000  0.40120  0.67430  Biso   1.000  O 
  C25      1.0000 0.00000  0.34370  0.65630  Biso   1.000  C 
  C26      1.0000 0.00000  0.29670  0.70330  Biso   1.000  C 
  C27      1.0000 0.00000  0.23740  0.68510  Biso   1.000  C 
  H13      1.0000 0.00000  0.22485  0.63467  Biso   1.000  H 
  C28      1.0000 0.00000  0.18510  0.73740  Biso   1.000  C 
  H14      1.0000 0.00000  0.13467  0.72486  Biso   1.000  H 
  C29      1.0000 0.00000  0.20330  0.79670  Biso   1.000  C 
  C30      1.0000 0.00000  0.26260  0.81490  Biso   1.000  C 
  H15      1.0000 0.00000  0.27514  0.86533  Biso   1.000  H 
  C31      1.0000 0.00000  0.31490  0.76260  Biso   1.000  C 
  H16      1.0000 0.00000  0.36533  0.77515  Biso   1.000  H 
  C32      1.0000 0.00000  0.15630  0.84370  Biso   1.000  C 
  O14      1.0000 0.00000  0.09880  0.82570  Biso   1.000  O 
  Zr10     1.0000 0.00000  0.00000  0.87630  Biso   1.000  Zr
  O15      1.0000 0.09880  0.00000  0.82570  Biso   1.000  O 
  C33      1.0000 0.15630  0.00000  0.84370  Biso   1.000  C 
  C34      1.0000 0.20330  0.00000  0.79670  Biso   1.000  C 
  C35      1.0000 0.26260  0.00000  0.81490  Biso   1.000  C 
  H17      1.0000 0.27514  0.00000  0.86533  Biso   1.000  H 
  C36      1.0000 0.31490  0.00000  0.76260  Biso   1.000  C 
  H18      1.0000 0.36533  0.00000  0.77515  Biso   1.000  H 
  C37      1.0000 0.29670  0.00000  0.70330  Biso   1.000  C 
  C38      1.0000 0.23740  0.00000  0.68510  Biso   1.000  C 
  H19      1.0000 0.22485  0.00000  0.63467  Biso   1.000  H 
  C39      1.0000 0.18510  0.00000  0.73740  Biso   1.000  C 
  H20      1.0000 0.13467  0.00000  0.72486  Biso   1.000  H 
  C40      1.0000 0.34370  0.00000  0.65630  Biso   1.000  C 
  O16      1.0000 0.32570  0.00000  0.59880  Biso   1.000  O 
  Zr11     1.0000 0.37630  0.00000  0.50000  Biso   1.000  Zr
  O17      1.0000 0.32570  0.00000  0.40120  Biso   1.000  O 
  C41      1.0000 0.34370  0.00000  0.34370  Biso   1.000  C 
  C42      1.0000 0.29670  0.00000  0.29670  Biso   1.000  C 
  C43      1.0000 0.23740  0.00000  0.31490  Biso   1.000  C 
  H21      1.0000 0.22485  0.00000  0.36533  Biso   1.000  H 
  C44      1.0000 0.18510  0.00000  0.26260  Biso   1.000  C 
  H22      1.0000 0.13467  0.00000  0.27514  Biso   1.000  H 
  C45      1.0000 0.20330  0.00000  0.20330  Biso   1.000  C 
  C46      1.0000 0.26260  0.00000  0.18510  Biso   1.000  C 
  H23      1.0000 0.27514  0.00000  0.13467  Biso   1.000  H 
  C47      1.0000 0.31490  0.00000  0.23740  Biso   1.000  C 
  H24      1.0000 0.36533  0.00000  0.22485  Biso   1.000  H 
  C48      1.0000 0.15630  0.00000  0.15630  Biso   1.000  C 
  O18      1.0000 0.09880  0.00000  0.17430  Biso   1.000  O 
  O19      1.0000 0.17430  0.00000  0.09880  Biso   1.000  O 
  O20      1.0000 0.40120  0.00000  0.32570  Biso   1.000  O 
  Zr12     1.0000 0.50000  0.00000  0.37630  Biso   1.000  Zr
  O21      1.0000 0.42880  0.07120  0.42880  Biso   1.000  O 
  Zr13     1.0000 0.50000  0.12370  0.50000  Biso   1.000  Zr
  O22      1.0000 0.42880  0.07120  0.57120  Biso   1.000  O 
  Zr14     1.0000 0.50000  0.00000  0.62370  Biso   1.000  Zr
  O23      1.0000 0.40120  0.00000  0.67430  Biso   1.000  O 
  O24      1.0000 0.59880  0.00000  0.67430  Biso   1.000  O 
  C49      1.0000 0.65630  0.00000  0.65630  Biso   1.000  C 
  C50      1.0000 0.70330  0.00000  0.70330  Biso   1.000  C 
  C51      1.0000 0.68510  0.00000  0.76260  Biso   1.000  C 
  H25      1.0000 0.63467  0.00000  0.77515  Biso   1.000  H 
  C52      1.0000 0.73740  0.00000  0.81490  Biso   1.000  C 
  H26      1.0000 0.72486  0.00000  0.86533  Biso   1.000  H 
  C53      1.0000 0.79670  0.00000  0.79670  Biso   1.000  C 
  C54      1.0000 0.81490  0.00000  0.73740  Biso   1.000  C 
  H27      1.0000 0.86533  0.00000  0.72486  Biso   1.000  H 
  C55      1.0000 0.76260  0.00000  0.68510  Biso   1.000  C 
  H28      1.0000 0.77515  0.00000  0.63467  Biso   1.000  H 
  C56      1.0000 0.84370  0.00000  0.84370  Biso   1.000  C 
  O25      1.0000 0.90120  0.00000  0.82570  Biso   1.000  O 
  O26      1.0000 0.82570  0.00000  0.90120  Biso   1.000  O 
  Zr15     1.0000 0.87630  0.00000  0.00000  Biso   1.000  Zr
  O27      1.0000 0.82570  0.00000  0.09880  Biso   1.000  O 
  C57      1.0000 0.84370  0.00000  0.15630  Biso   1.000  C 
  C58      1.0000 0.79670  0.00000  0.20330  Biso   1.000  C 
  C59      1.0000 0.81490  0.00000  0.26260  Biso   1.000  C 
  C60      1.0000 0.76260  0.00000  0.31490  Biso   1.000  C 
  H29      1.0000 0.77515  0.00000  0.36533  Biso   1.000  H 
  C61      1.0000 0.70330  0.00000  0.29670  Biso   1.000  C 
  C62      1.0000 0.68510  0.00000  0.23740  Biso   1.000  C 
  H30      1.0000 0.63467  0.00000  0.22485  Biso   1.000  H 
  C63      1.0000 0.73740  0.00000  0.18510  Biso   1.000  C 
  H31      1.0000 0.72486  0.00000  0.13467  Biso   1.000  H 
  C64      1.0000 0.65630  0.00000  0.34370  Biso   1.000  C 
  O28      1.0000 0.59880  0.00000  0.32570  Biso   1.000  O 
  O29      1.0000 0.67430  0.00000  0.40120  Biso   1.000  O 
  Zr16     1.0000 0.62370  0.00000  0.50000  Biso   1.000  Zr
  O30      1.0000 0.57120  0.07120  0.42880  Biso   1.000  O 
  O31      1.0000 0.57120  0.07120  0.57120  Biso   1.000  O 
  O32      1.0000 0.67430  0.00000  0.59880  Biso   1.000  O 
  O33      1.0000 0.67430  0.09880  0.50000  Biso   1.000  O 
  C65      1.0000 0.65630  0.15630  0.50000  Biso   1.000  C 
  C66      1.0000 0.70330  0.20330  0.50000  Biso   1.000  C 
  C67      1.0000 0.76260  0.18510  0.50000  Biso   1.000  C 
  H32      1.0000 0.77515  0.13467  0.50000  Biso   1.000  H 
  C68      1.0000 0.81490  0.23740  0.50000  Biso   1.000  C 
  H33      1.0000 0.86533  0.22485  0.50000  Biso   1.000  H 
  C69      1.0000 0.79670  0.29670  0.50000  Biso   1.000  C 
  C70      1.0000 0.73740  0.31490  0.50000  Biso   1.000  C 
  C71      1.0000 0.68510  0.26260  0.50000  Biso   1.000  C 
  H34      1.0000 0.63467  0.27514  0.50000  Biso   1.000  H 
  H35      1.0000 0.72486  0.36533  0.50000  Biso   1.000  H 
  C72      1.0000 0.84370  0.34370  0.50000  Biso   1.000  C 
  O34      1.0000 0.82570  0.40120  0.50000  Biso   1.000  O 
  Zr17     1.0000 0.87630  0.50000  0.50000  Biso   1.000  Zr
  O35      1.0000 0.92880  0.42880  0.42880  Biso   1.000  O 
  O36      1.0000 0.92880  0.42880  0.57120  Biso   1.000  O 
  O37      1.0000 0.82570  0.50000  0.40120  Biso   1.000  O 
  C73      1.0000 0.84370  0.50000  0.34370  Biso   1.000  C 
  C74      1.0000 0.79670  0.50000  0.29670  Biso   1.000  C 
  C75      1.0000 0.81490  0.50000  0.23740  Biso   1.000  C 
  H36      1.0000 0.86533  0.50000  0.22485  Biso   1.000  H 
  C76      1.0000 0.76260  0.50000  0.18510  Biso   1.000  C 
  H37      1.0000 0.77515  0.50000  0.13467  Biso   1.000  H 
  C77      1.0000 0.70330  0.50000  0.20330  Biso   1.000  C 
  C78      1.0000 0.68510  0.50000  0.26260  Biso   1.000  C 
  H38      1.0000 0.63467  0.50000  0.27514  Biso   1.000  H 
  C79      1.0000 0.73740  0.50000  0.31490  Biso   1.000  C 
  H39      1.0000 0.72486  0.50000  0.36533  Biso   1.000  H 
  C80      1.0000 0.65630  0.50000  0.15630  Biso   1.000  C 
  O38      1.0000 0.59880  0.50000  0.17430  Biso   1.000  O 
  O39      1.0000 0.67430  0.50000  0.09880  Biso   1.000  O 
  Zr18     1.0000 0.62370  0.50000  0.00000  Biso   1.000  Zr
  Zr19     1.0000 0.50000  0.37630  0.00000  Biso   1.000  Zr
  O40      1.0000 0.40120  0.32570  0.00000  Biso   1.000  O 
  O41      1.0000 0.59880  0.32570  0.00000  Biso   1.000  O 
  C81      1.0000 0.65630  0.34370  0.00000  Biso   1.000  C 
  C82      1.0000 0.70330  0.29670  0.00000  Biso   1.000  C 
  C83      1.0000 0.68510  0.23740  0.00000  Biso   1.000  C 
  H40      1.0000 0.63467  0.22485  0.00000  Biso   1.000  H 
  C84      1.0000 0.73740  0.18510  0.00000  Biso   1.000  C 
  H41      1.0000 0.72486  0.13467  0.00000  Biso   1.000  H 
  C85      1.0000 0.79670  0.20330  0.00000  Biso   1.000  C 
  C86      1.0000 0.81490  0.26260  0.00000  Biso   1.000  C 
  H42      1.0000 0.86533  0.27514  0.00000  Biso   1.000  H 
  C87      1.0000 0.76260  0.31490  0.00000  Biso   1.000  C 
  H43      1.0000 0.77515  0.36533  0.00000  Biso   1.000  H 
  C88      1.0000 0.84370  0.15630  0.00000  Biso   1.000  C 
  O42      1.0000 0.82570  0.09880  0.00000  Biso   1.000  O 
  O43      1.0000 0.90120  0.17430  0.00000  Biso   1.000  O 
  O44      1.0000 0.67430  0.40120  0.00000  Biso   1.000  O 
  O45      1.0000 0.50000  0.32570  0.09880  Biso   1.000  O 
  C89      1.0000 0.50000  0.34370  0.15630  Biso   1.000  C 
  C90      1.0000 0.50000  0.29670  0.20330  Biso   1.000  C 
  C91      1.0000 0.50000  0.23740  0.18510  Biso   1.000  C 
  H44      1.0000 0.50000  0.22485  0.13467  Biso   1.000  H 
  C92      1.0000 0.50000  0.18510  0.23740  Biso   1.000  C 
  H45      1.0000 0.50000  0.13467  0.22485  Biso   1.000  H 
  C93      1.0000 0.50000  0.20330  0.29670  Biso   1.000  C 
  C94      1.0000 0.50000  0.26260  0.31490  Biso   1.000  C 
  H46      1.0000 0.50000  0.27514  0.36533  Biso   1.000  H 
  C95      1.0000 0.50000  0.31490  0.26260  Biso   1.000  C 
  H47      1.0000 0.50000  0.36533  0.27514  Biso   1.000  H 
  C96      1.0000 0.50000  0.15630  0.34370  Biso   1.000  C 
  O46      1.0000 0.50000  0.09880  0.32570  Biso   1.000  O 
  O47      1.0000 0.50000  0.17430  0.40120  Biso   1.000  O 
  O48      1.0000 0.50000  0.40120  0.17430  Biso   1.000  O 
  O49      1.0000 0.57120  0.42880  0.07120  Biso   1.000  O 
  Zr20     1.0000 0.50000  0.50000  0.87630  Biso   1.000  Zr
  O50      1.0000 0.42880  0.42880  0.92880  Biso   1.000  O 
  O51      1.0000 0.40120  0.50000  0.82570  Biso   1.000  O 
  C97      1.0000 0.34370  0.50000  0.84370  Biso   1.000  C 
  C98      1.0000 0.29670  0.50000  0.79670  Biso   1.000  C 
  C99      1.0000 0.31490  0.50000  0.73740  Biso   1.000  C 
  H48      1.0000 0.36533  0.50000  0.72486  Biso   1.000  H 
  C100     1.0000 0.26260  0.50000  0.68510  Biso   1.000  C 
  H49      1.0000 0.27514  0.50000  0.63467  Biso   1.000  H 
  C101     1.0000 0.20330  0.50000  0.70330  Biso   1.000  C 
  C102     1.0000 0.18510  0.50000  0.76260  Biso   1.000  C 
  H50      1.0000 0.13467  0.50000  0.77515  Biso   1.000  H 
  C103     1.0000 0.23740  0.50000  0.81490  Biso   1.000  C 
  H51      1.0000 0.22485  0.50000  0.86533  Biso   1.000  H 
  C104     1.0000 0.15630  0.50000  0.65630  Biso   1.000  C 
  O52      1.0000 0.09880  0.50000  0.67430  Biso   1.000  O 
  O53      1.0000 0.17430  0.50000  0.59880  Biso   1.000  O 
  O54      1.0000 0.32570  0.50000  0.90120  Biso   1.000  O 
  O55      1.0000 0.42880  0.57120  0.92880  Biso   1.000  O 
  Zr21     1.0000 0.50000  0.62370  0.00000  Biso   1.000  Zr
  O56      1.0000 0.42880  0.57120  0.07120  Biso   1.000  O 
  O57      1.0000 0.40120  0.67430  0.00000  Biso   1.000  O 
  C105     1.0000 0.34370  0.65630  0.00000  Biso   1.000  C 
  C106     1.0000 0.29670  0.70330  0.00000  Biso   1.000  C 
  C107     1.0000 0.23740  0.68510  0.00000  Biso   1.000  C 
  H52      1.0000 0.22485  0.63467  0.00000  Biso   1.000  H 
  C108     1.0000 0.18510  0.73740  0.00000  Biso   1.000  C 
  H53      1.0000 0.13467  0.72486  0.00000  Biso   1.000  H 
  C109     1.0000 0.20330  0.79670  0.00000  Biso   1.000  C 
  C110     1.0000 0.26260  0.81490  0.00000  Biso   1.000  C 
  H54      1.0000 0.27514  0.86533  0.00000  Biso   1.000  H 
  C111     1.0000 0.31490  0.76260  0.00000  Biso   1.000  C 
  H55      1.0000 0.36533  0.77515  0.00000  Biso   1.000  H 
  C112     1.0000 0.15630  0.84370  0.00000  Biso   1.000  C 
  O58      1.0000 0.09880  0.82570  0.00000  Biso   1.000  O 
  Zr22     1.0000 0.00000  0.87630  0.00000  Biso   1.000  Zr
  O59      1.0000 0.00000  0.82570  0.09880  Biso   1.000  O 
  C113     1.0000 0.00000  0.84370  0.15630  Biso   1.000  C 
  C114     1.0000 0.00000  0.79670  0.20330  Biso   1.000  C 
  C115     1.0000 0.00000  0.73740  0.18510  Biso   1.000  C 
  C116     1.0000 0.00000  0.68510  0.23740  Biso   1.000  C 
  H56      1.0000 0.00000  0.63467  0.22485  Biso   1.000  H 
  C117     1.0000 0.00000  0.70330  0.29670  Biso   1.000  C 
  C118     1.0000 0.00000  0.76260  0.31490  Biso   1.000  C 
  H57      1.0000 0.00000  0.77515  0.36533  Biso   1.000  H 
  C119     1.0000 0.00000  0.81490  0.26260  Biso   1.000  C 
  H58      1.0000 0.00000  0.86533  0.27514  Biso   1.000  H 
  C120     1.0000 0.00000  0.65630  0.34370  Biso   1.000  C 
  O60      1.0000 0.00000  0.59880  0.32570  Biso   1.000  O 
  O61      1.0000 0.00000  0.67430  0.40120  Biso   1.000  O 
  Zr23     1.0000 0.00000  0.62370  0.50000  Biso   1.000  Zr
  O62      1.0000 0.07120  0.57120  0.42880  Biso   1.000  O 
  O63      1.0000 0.07120  0.57120  0.57120  Biso   1.000  O 
  O64      1.0000 0.00000  0.67430  0.59880  Biso   1.000  O 
  C121     1.0000 0.00000  0.65630  0.65630  Biso   1.000  C 
  C122     1.0000 0.00000  0.70330  0.70330  Biso   1.000  C 
  C123     1.0000 0.00000  0.68510  0.76260  Biso   1.000  C 
  H59      1.0000 0.00000  0.63467  0.77515  Biso   1.000  H 
  C124     1.0000 0.00000  0.73740  0.81490  Biso   1.000  C 
  H60      1.0000 0.00000  0.72486  0.86533  Biso   1.000  H 
  C125     1.0000 0.00000  0.79670  0.79670  Biso   1.000  C 
  C126     1.0000 0.00000  0.81490  0.73740  Biso   1.000  C 
  C127     1.0000 0.00000  0.76260  0.68510  Biso   1.000  C 
  H61      1.0000 0.00000  0.77515  0.63467  Biso   1.000  H 
  H62      1.0000 0.00000  0.86533  0.72486  Biso   1.000  H 
  C128     1.0000 0.00000  0.84370  0.84370  Biso   1.000  C 
  O65      1.0000 0.00000  0.82570  0.90120  Biso   1.000  O 
  O66      1.0000 0.00000  0.90120  0.82570  Biso   1.000  O 
  O67      1.0000 0.00000  0.59880  0.67430  Biso   1.000  O 
  O68      1.0000 0.09880  0.67430  0.50000  Biso   1.000  O 
  C129     1.0000 0.15630  0.65630  0.50000  Biso   1.000  C 
  C130     1.0000 0.20330  0.70330  0.50000  Biso   1.000  C 
  C131     1.0000 0.26260  0.68510  0.50000  Biso   1.000  C 
  C132     1.0000 0.31490  0.73740  0.50000  Biso   1.000  C 
  H63      1.0000 0.36533  0.72486  0.50000  Biso   1.000  H 
  C133     1.0000 0.29670  0.79670  0.50000  Biso   1.000  C 
  C134     1.0000 0.23740  0.81490  0.50000  Biso   1.000  C 
  H64      1.0000 0.22485  0.86533  0.50000  Biso   1.000  H 
  C135     1.0000 0.18510  0.76260  0.50000  Biso   1.000  C 
  H65      1.0000 0.13467  0.77515  0.50000  Biso   1.000  H 
  C136     1.0000 0.34370  0.84370  0.50000  Biso   1.000  C 
  O69      1.0000 0.32570  0.90120  0.50000  Biso   1.000  O 
  O70      1.0000 0.40120  0.82570  0.50000  Biso   1.000  O 
  Zr24     1.0000 0.50000  0.87630  0.50000  Biso   1.000  Zr
  O71      1.0000 0.42880  0.92880  0.42880  Biso   1.000  O 
  O72      1.0000 0.42880  0.92880  0.57120  Biso   1.000  O 
  O73      1.0000 0.57120  0.92880  0.42880  Biso   1.000  O 
  O74      1.0000 0.50000  0.82570  0.40120  Biso   1.000  O 
  C137     1.0000 0.50000  0.84370  0.34370  Biso   1.000  C 
  C138     1.0000 0.50000  0.79670  0.29670  Biso   1.000  C 
  C139     1.0000 0.50000  0.73740  0.31490  Biso   1.000  C 
  C140     1.0000 0.50000  0.68510  0.26260  Biso   1.000  C 
  H66      1.0000 0.50000  0.63467  0.27514  Biso   1.000  H 
  C141     1.0000 0.50000  0.70330  0.20330  Biso   1.000  C 
  C142     1.0000 0.50000  0.76260  0.18510  Biso   1.000  C 
  H67      1.0000 0.50000  0.77515  0.13467  Biso   1.000  H 
  C143     1.0000 0.50000  0.81490  0.23740  Biso   1.000  C 
  H68      1.0000 0.50000  0.86533  0.22485  Biso   1.000  H 
  C144     1.0000 0.50000  0.65630  0.15630  Biso   1.000  C 
  O75      1.0000 0.50000  0.67430  0.09880  Biso   1.000  O 
  O76      1.0000 0.50000  0.59880  0.17430  Biso   1.000  O 
  H69      1.0000 0.50000  0.72486  0.36533  Biso   1.000  H 
  O77      1.0000 0.50000  0.90120  0.32570  Biso   1.000  O 
  O78      1.0000 0.57120  0.92880  0.57120  Biso   1.000  O 
  O79      1.0000 0.59880  0.82570  0.50000  Biso   1.000  O 
  C145     1.0000 0.65630  0.84370  0.50000  Biso   1.000  C 
  C146     1.0000 0.70330  0.79670  0.50000  Biso   1.000  C 
  C147     1.0000 0.76260  0.81490  0.50000  Biso   1.000  C 
  H70      1.0000 0.77515  0.86533  0.50000  Biso   1.000  H 
  C148     1.0000 0.81490  0.76260  0.50000  Biso   1.000  C 
  H71      1.0000 0.86533  0.77515  0.50000  Biso   1.000  H 
  C149     1.0000 0.79670  0.70330  0.50000  Biso   1.000  C 
  C150     1.0000 0.73740  0.68510  0.50000  Biso   1.000  C 
  H72      1.0000 0.72486  0.63467  0.50000  Biso   1.000  H 
  C151     1.0000 0.68510  0.73740  0.50000  Biso   1.000  C 
  H73      1.0000 0.63467  0.72486  0.50000  Biso   1.000  H 
  C152     1.0000 0.84370  0.65630  0.50000  Biso   1.000  C 
  O80      1.0000 0.82570  0.59880  0.50000  Biso   1.000  O 
  O81      1.0000 0.90120  0.67430  0.50000  Biso   1.000  O 
  O82      1.0000 0.67430  0.90120  0.50000  Biso   1.000  O 
  O83      1.0000 0.50000  0.82570  0.59880  Biso   1.000  O 
  C153     1.0000 0.50000  0.84370  0.65630  Biso   1.000  C 
  C154     1.0000 0.50000  0.79670  0.70330  Biso   1.000  C 
  C155     1.0000 0.50000  0.73740  0.68510  Biso   1.000  C 
  C156     1.0000 0.50000  0.68510  0.73740  Biso   1.000  C 
  H74      1.0000 0.50000  0.63467  0.72486  Biso   1.000  H 
  C157     1.0000 0.50000  0.70330  0.79670  Biso   1.000  C 
  C158     1.0000 0.50000  0.76260  0.81490  Biso   1.000  C 
  H75      1.0000 0.50000  0.77515  0.86533  Biso   1.000  H 
  C159     1.0000 0.50000  0.81490  0.76260  Biso   1.000  C 
  H76      1.0000 0.50000  0.86533  0.77515  Biso   1.000  H 
  C160     1.0000 0.50000  0.65630  0.84370  Biso   1.000  C 
  O84      1.0000 0.50000  0.59880  0.82570  Biso   1.000  O 
  O85      1.0000 0.50000  0.67430  0.90120  Biso   1.000  O 
  H77      1.0000 0.50000  0.72486  0.63467  Biso   1.000  H 
  O86      1.0000 0.50000  0.90120  0.67430  Biso   1.000  O 
  H78      1.0000 0.27514  0.63467  0.50000  Biso   1.000  H 
  O87      1.0000 0.17430  0.59880  0.50000  Biso   1.000  O 
  O88      1.0000 0.92880  0.57120  0.42880  Biso   1.000  O 
  O89      1.0000 0.92880  0.57120  0.57120  Biso   1.000  O 
  H79      1.0000 0.00000  0.72486  0.13467  Biso   1.000  H 
  O90      1.0000 0.00000  0.90120  0.17430  Biso   1.000  O 
  O91      1.0000 0.07120  0.92880  0.07120  Biso   1.000  O 
  O92      1.0000 0.92880  0.92880  0.07120  Biso   1.000  O 
  O93      1.0000 0.07120  0.92880  0.92880  Biso   1.000  O 
  O94      1.0000 0.92880  0.92880  0.92880  Biso   1.000  O 
  O95      1.0000 0.90120  0.82570  0.00000  Biso   1.000  O 
  C161     1.0000 0.84370  0.84370  0.00000  Biso   1.000  C 
  C162     1.0000 0.79670  0.79670  0.00000  Biso   1.000  C 
  C163     1.0000 0.73740  0.81490  0.00000  Biso   1.000  C 
  H80      1.0000 0.72486  0.86533  0.00000  Biso   1.000  H 
  C164     1.0000 0.68510  0.76260  0.00000  Biso   1.000  C 
  H81      1.0000 0.63467  0.77515  0.00000  Biso   1.000  H 
  C165     1.0000 0.70330  0.70330  0.00000  Biso   1.000  C 
  C166     1.0000 0.76260  0.68510  0.00000  Biso   1.000  C 
  H82      1.0000 0.77515  0.63467  0.00000  Biso   1.000  H 
  C167     1.0000 0.81490  0.73740  0.00000  Biso   1.000  C 
  H83      1.0000 0.86533  0.72486  0.00000  Biso   1.000  H 
  C168     1.0000 0.65630  0.65630  0.00000  Biso   1.000  C 
  O96      1.0000 0.67430  0.59880  0.00000  Biso   1.000  O 
  O97      1.0000 0.59880  0.67430  0.00000  Biso   1.000  O 
  O98      1.0000 0.82570  0.90120  0.00000  Biso   1.000  O 
  O99      1.0000 0.17430  0.90120  0.00000  Biso   1.000  O 
  O100     1.0000 0.32570  0.59880  0.00000  Biso   1.000  O 
  O101     1.0000 0.57120  0.57120  0.07120  Biso   1.000  O 
  O102     1.0000 0.57120  0.57120  0.92880  Biso   1.000  O 
  O103     1.0000 0.50000  0.40120  0.82570  Biso   1.000  O 
  C169     1.0000 0.50000  0.34370  0.84370  Biso   1.000  C 
  C170     1.0000 0.50000  0.29670  0.79670  Biso   1.000  C 
  C171     1.0000 0.50000  0.23740  0.81490  Biso   1.000  C 
  H84      1.0000 0.50000  0.22485  0.86533  Biso   1.000  H 
  C172     1.0000 0.50000  0.18510  0.76260  Biso   1.000  C 
  H85      1.0000 0.50000  0.13467  0.77515  Biso   1.000  H 
  C173     1.0000 0.50000  0.20330  0.70330  Biso   1.000  C 
  C174     1.0000 0.50000  0.26260  0.68510  Biso   1.000  C 
  H86      1.0000 0.50000  0.27514  0.63467  Biso   1.000  H 
  C175     1.0000 0.50000  0.31490  0.73740  Biso   1.000  C 
  H87      1.0000 0.50000  0.36533  0.72486  Biso   1.000  H 
  C176     1.0000 0.50000  0.15630  0.65630  Biso   1.000  C 
  O104     1.0000 0.50000  0.17430  0.59880  Biso   1.000  O 
  O105     1.0000 0.50000  0.09880  0.67430  Biso   1.000  O 
  O106     1.0000 0.50000  0.32570  0.90120  Biso   1.000  O 
  O107     1.0000 0.57120  0.42880  0.92880  Biso   1.000  O 
  O108     1.0000 0.59880  0.50000  0.82570  Biso   1.000  O 
  C177     1.0000 0.65630  0.50000  0.84370  Biso   1.000  C 
  C178     1.0000 0.70330  0.50000  0.79670  Biso   1.000  C 
  C179     1.0000 0.76260  0.50000  0.81490  Biso   1.000  C 
  H88      1.0000 0.77515  0.50000  0.86533  Biso   1.000  H 
  C180     1.0000 0.81490  0.50000  0.76260  Biso   1.000  C 
  H89      1.0000 0.86533  0.50000  0.77515  Biso   1.000  H 
  C181     1.0000 0.79670  0.50000  0.70330  Biso   1.000  C 
  C182     1.0000 0.73740  0.50000  0.68510  Biso   1.000  C 
  H90      1.0000 0.72486  0.50000  0.63467  Biso   1.000  H 
  C183     1.0000 0.68510  0.50000  0.73740  Biso   1.000  C 
  H91      1.0000 0.63467  0.50000  0.72486  Biso   1.000  H 
  C184     1.0000 0.84370  0.50000  0.65630  Biso   1.000  C 
  O109     1.0000 0.82570  0.50000  0.59880  Biso   1.000  O 
  O110     1.0000 0.90120  0.50000  0.67430  Biso   1.000  O 
  O111     1.0000 0.67430  0.50000  0.90120  Biso   1.000  O 
  O112     1.0000 0.90120  0.50000  0.32570  Biso   1.000  O 
  O113     1.0000 0.90120  0.32570  0.50000  Biso   1.000  O 
  O114     1.0000 0.59880  0.17430  0.50000  Biso   1.000  O 
  H92      1.0000 0.86533  0.00000  0.27514  Biso   1.000  H 
  O115     1.0000 0.90120  0.00000  0.17430  Biso   1.000  O 
  O116     1.0000 0.92880  0.07120  0.07120  Biso   1.000  O 
  O117     1.0000 0.92880  0.07120  0.92880  Biso   1.000  O 
  O118     1.0000 0.40120  0.17430  0.50000  Biso   1.000  O 
  C185     1.0000 0.34370  0.15630  0.50000  Biso   1.000  C 
  C186     1.0000 0.29670  0.20330  0.50000  Biso   1.000  C 
  C187     1.0000 0.23740  0.18510  0.50000  Biso   1.000  C 
  H93      1.0000 0.22485  0.13467  0.50000  Biso   1.000  H 
  C188     1.0000 0.18510  0.23740  0.50000  Biso   1.000  C 
  H94      1.0000 0.13467  0.22485  0.50000  Biso   1.000  H 
  C189     1.0000 0.20330  0.29670  0.50000  Biso   1.000  C 
  C190     1.0000 0.26260  0.31490  0.50000  Biso   1.000  C 
  H95      1.0000 0.27514  0.36533  0.50000  Biso   1.000  H 
  C191     1.0000 0.31490  0.26260  0.50000  Biso   1.000  C 
  H96      1.0000 0.36533  0.27514  0.50000  Biso   1.000  H 
  C192     1.0000 0.15630  0.34370  0.50000  Biso   1.000  C 
  O119     1.0000 0.09880  0.32570  0.50000  Biso   1.000  O 
  O120     1.0000 0.17430  0.40120  0.50000  Biso   1.000  O 
  O121     1.0000 0.32570  0.09880  0.50000  Biso   1.000  O 
  O122     1.0000 0.17430  0.00000  0.90120  Biso   1.000  O 
  O123     1.0000 0.07120  0.07120  0.92880  Biso   1.000  O 
  O124     1.0000 0.00000  0.17430  0.90120  Biso   1.000  O 
  O125     1.0000 0.00000  0.32570  0.59880  Biso   1.000  O 
  O126     1.0000 0.17430  0.50000  0.40120  Biso   1.000  O 
  O127     1.0000 0.32570  0.50000  0.09880  Biso   1.000  O 
  O128     1.0000 0.17430  0.09880  0.00000  Biso   1.000  O 
