data_image0
_cell_length_a       18.5574
_cell_length_b       18.706
_cell_length_c       9.4156
_cell_angle_alpha    90
_cell_angle_beta     94.4338
_cell_angle_gamma    90

_symmetry_space_group_name_H-M    "P 1"
_symmetry_int_tables_number       1

loop_
  _symmetry_equiv_pos_as_xyz
  'x, y, z'

loop_
  _atom_site_label
  _atom_site_occupancy
  _atom_site_fract_x
  _atom_site_fract_y
  _atom_site_fract_z
  _atom_site_thermal_displace_type
  _atom_site_B_iso_or_equiv
  _atom_site_type_symbol
  O1       1.0000 0.31744  0.18279  0.38489  Biso   1.000  O 
  Ni1      1.0000 0.24989  0.25000  0.36706  Biso   1.000  Ni
  N1       1.0000 0.24705  0.25000  0.14549  Biso   1.000  N 
  C1       1.0000 0.32133  0.25000  0.09162  Biso   1.000  C 
  H1       1.0000 0.35219  0.29731  0.13359  Biso   1.000  H 
  H2       1.0000 0.35219  0.20269  0.13359  Biso   1.000  H 
  C2       1.0000 0.32177  0.25000  0.92049  Biso   1.000  C 
  H3       1.0000 0.35243  0.20257  0.88723  Biso   1.000  H 
  H4       1.0000 0.35243  0.29743  0.88723  Biso   1.000  H 
  N2       1.0000 0.24788  0.25000  0.84497  Biso   1.000  N 
  C3       1.0000 0.21078  0.18660  0.90455  Biso   1.000  C 
  H5       1.0000 0.15359  0.18469  0.85983  Biso   1.000  H 
  H6       1.0000 0.23651  0.13651  0.86968  Biso   1.000  H 
  C4       1.0000 0.21042  0.18654  0.07538  Biso   1.000  C 
  H7       1.0000 0.15335  0.18424  0.10347  Biso   1.000  H 
  H8       1.0000 0.23650  0.13668  0.11840  Biso   1.000  H 
  C5       1.0000 0.21078  0.31340  0.90455  Biso   1.000  C 
  H9       1.0000 0.15359  0.31531  0.85983  Biso   1.000  H 
  H10      1.0000 0.23651  0.36349  0.86968  Biso   1.000  H 
  C6       1.0000 0.21042  0.31346  0.07538  Biso   1.000  C 
  H11      1.0000 0.23650  0.36332  0.11840  Biso   1.000  H 
  H12      1.0000 0.15335  0.31576  0.10347  Biso   1.000  H 
  Ni2      1.0000 0.25021  0.25000  0.62109  Biso   1.000  Ni
  O2       1.0000 0.18171  0.18220  0.60221  Biso   1.000  O 
  C7       1.0000 0.15652  0.15709  0.48013  Biso   1.000  C 
  C8       1.0000 0.10235  0.09432  0.47031  Biso   1.000  C 
  C9       1.0000 0.09891  0.04781  0.35166  Biso   1.000  C 
  H13      1.0000 0.13557  0.05540  0.26894  Biso   1.000  H 
  C10      1.0000 0.04857  0.99081  0.33676  Biso   1.000  C 
  H14      1.0000 0.04853  0.95699  0.24335  Biso   1.000  H 
  C11      1.0000 0.99903  0.97730  0.43997  Biso   1.000  C 
  C12      1.0000 0.00097  0.02270  0.56003  Biso   1.000  C 
  C13      1.0000 0.05215  0.08051  0.57470  Biso   1.000  C 
  H15      1.0000 0.05278  0.11458  0.66774  Biso   1.000  H 
  C14      1.0000 0.95143  0.00919  0.66324  Biso   1.000  C 
  H16      1.0000 0.95147  0.04301  0.75665  Biso   1.000  H 
  C15      1.0000 0.90109  0.95219  0.64834  Biso   1.000  C 
  H17      1.0000 0.86443  0.94460  0.73106  Biso   1.000  H 
  C16      1.0000 0.89765  0.90568  0.52969  Biso   1.000  C 
  C17      1.0000 0.94785  0.91949  0.42530  Biso   1.000  C 
  H18      1.0000 0.94722  0.88542  0.33226  Biso   1.000  H 
  C18      1.0000 0.84348  0.84291  0.51987  Biso   1.000  C 
  O3       1.0000 0.81829  0.81780  0.39779  Biso   1.000  O 
  Ni3      1.0000 0.74979  0.75000  0.37891  Biso   1.000  Ni
  Ni4      1.0000 0.75011  0.75000  0.63294  Biso   1.000  Ni
  N3       1.0000 0.75295  0.75000  0.85451  Biso   1.000  N 
  C19      1.0000 0.67867  0.75000  0.90838  Biso   1.000  C 
  C20      1.0000 0.67823  0.75000  0.07951  Biso   1.000  C 
  H19      1.0000 0.64757  0.70257  0.11277  Biso   1.000  H 
  H20      1.0000 0.64757  0.79743  0.11277  Biso   1.000  H 
  N4       1.0000 0.75212  0.75000  0.15503  Biso   1.000  N 
  C21      1.0000 0.78922  0.68660  0.09545  Biso   1.000  C 
  H21      1.0000 0.84641  0.68469  0.14017  Biso   1.000  H 
  H22      1.0000 0.76349  0.63651  0.13032  Biso   1.000  H 
  C22      1.0000 0.78958  0.68654  0.92462  Biso   1.000  C 
  H23      1.0000 0.76350  0.63668  0.88160  Biso   1.000  H 
  H24      1.0000 0.84665  0.68424  0.89653  Biso   1.000  H 
  C23      1.0000 0.78922  0.81340  0.09545  Biso   1.000  C 
  H25      1.0000 0.84641  0.81531  0.14017  Biso   1.000  H 
  H26      1.0000 0.76349  0.86349  0.13032  Biso   1.000  H 
  C24      1.0000 0.78958  0.81346  0.92462  Biso   1.000  C 
  H27      1.0000 0.84665  0.81576  0.89653  Biso   1.000  H 
  H28      1.0000 0.76350  0.86332  0.88160  Biso   1.000  H 
  H29      1.0000 0.64781  0.79731  0.86641  Biso   1.000  H 
  H30      1.0000 0.64781  0.70269  0.86641  Biso   1.000  H 
  O4       1.0000 0.68256  0.68279  0.61511  Biso   1.000  O 
  C25      1.0000 0.65665  0.65689  0.49443  Biso   1.000  C 
  C26      1.0000 0.59761  0.60008  0.47897  Biso   1.000  C 
  C27      1.0000 0.57332  0.55849  0.59281  Biso   1.000  C 
  C28      1.0000 0.51677  0.50594  0.56912  Biso   1.000  C 
  C29      1.0000 0.48323  0.49406  0.43088  Biso   1.000  C 
  C30      1.0000 0.42668  0.44151  0.40719  Biso   1.000  C 
  H31      1.0000 0.40162  0.43342  0.30063  Biso   1.000  H 
  C31      1.0000 0.40239  0.39992  0.52103  Biso   1.000  C 
  C32      1.0000 0.43752  0.41318  0.65765  Biso   1.000  C 
  H32      1.0000 0.42230  0.38317  0.74887  Biso   1.000  H 
  C33      1.0000 0.49298  0.46463  0.68117  Biso   1.000  C 
  H33      1.0000 0.51743  0.47200  0.78842  Biso   1.000  H 
  C34      1.0000 0.34335  0.34311  0.50557  Biso   1.000  C 
  O5       1.0000 0.31744  0.31721  0.38489  Biso   1.000  O 
  O6       1.0000 0.31944  0.31871  0.62318  Biso   1.000  O 
  C35      1.0000 0.50702  0.53537  0.31883  Biso   1.000  C 
  H34      1.0000 0.48257  0.52800  0.21158  Biso   1.000  H 
  C36      1.0000 0.56248  0.58682  0.34235  Biso   1.000  C 
  H35      1.0000 0.57770  0.61683  0.25113  Biso   1.000  H 
  H36      1.0000 0.59838  0.56658  0.69937  Biso   1.000  H 
  O7       1.0000 0.68056  0.68129  0.37682  Biso   1.000  O 
  O8       1.0000 0.68256  0.81721  0.61511  Biso   1.000  O 
  C37      1.0000 0.65665  0.84311  0.49443  Biso   1.000  C 
  C38      1.0000 0.59761  0.89992  0.47897  Biso   1.000  C 
  C39      1.0000 0.57332  0.94151  0.59281  Biso   1.000  C 
  H37      1.0000 0.59838  0.93342  0.69937  Biso   1.000  H 
  C40      1.0000 0.51677  0.99406  0.56912  Biso   1.000  C 
  C41      1.0000 0.48323  0.00594  0.43088  Biso   1.000  C 
  C42      1.0000 0.42668  0.05849  0.40719  Biso   1.000  C 
  H38      1.0000 0.40162  0.06658  0.30063  Biso   1.000  H 
  C43      1.0000 0.40239  0.10008  0.52103  Biso   1.000  C 
  C44      1.0000 0.43752  0.08682  0.65765  Biso   1.000  C 
  H39      1.0000 0.42230  0.11683  0.74887  Biso   1.000  H 
  C45      1.0000 0.49298  0.03537  0.68117  Biso   1.000  C 
  H40      1.0000 0.51743  0.02800  0.78842  Biso   1.000  H 
  C46      1.0000 0.34335  0.15689  0.50557  Biso   1.000  C 
  O9       1.0000 0.31944  0.18129  0.62318  Biso   1.000  O 
  C47      1.0000 0.50702  0.96463  0.31883  Biso   1.000  C 
  H41      1.0000 0.48257  0.97200  0.21158  Biso   1.000  H 
  C48      1.0000 0.56248  0.91318  0.34235  Biso   1.000  C 
  H42      1.0000 0.57770  0.88317  0.25113  Biso   1.000  H 
  O10      1.0000 0.68056  0.81871  0.37682  Biso   1.000  O 
  O11      1.0000 0.81870  0.68210  0.63545  Biso   1.000  O 
  C49      1.0000 0.84348  0.65709  0.51987  Biso   1.000  C 
  C50      1.0000 0.89765  0.59432  0.52969  Biso   1.000  C 
  C51      1.0000 0.90109  0.54781  0.64834  Biso   1.000  C 
  H43      1.0000 0.86443  0.55540  0.73106  Biso   1.000  H 
  C52      1.0000 0.95143  0.49081  0.66324  Biso   1.000  C 
  H44      1.0000 0.95147  0.45699  0.75665  Biso   1.000  H 
  C53      1.0000 0.00097  0.47730  0.56003  Biso   1.000  C 
  C54      1.0000 0.05215  0.41949  0.57470  Biso   1.000  C 
  H45      1.0000 0.05278  0.38542  0.66774  Biso   1.000  H 
  C55      1.0000 0.10235  0.40568  0.47031  Biso   1.000  C 
  C56      1.0000 0.09891  0.45219  0.35166  Biso   1.000  C 
  H46      1.0000 0.13557  0.44460  0.26894  Biso   1.000  H 
  C57      1.0000 0.04857  0.50919  0.33676  Biso   1.000  C 
  H47      1.0000 0.04853  0.54301  0.24335  Biso   1.000  H 
  C58      1.0000 0.99903  0.52270  0.43997  Biso   1.000  C 
  C59      1.0000 0.94785  0.58051  0.42530  Biso   1.000  C 
  H48      1.0000 0.94722  0.61458  0.33226  Biso   1.000  H 
  C60      1.0000 0.15652  0.34291  0.48013  Biso   1.000  C 
  O12      1.0000 0.18171  0.31780  0.60221  Biso   1.000  O 
  O13      1.0000 0.18130  0.31790  0.36455  Biso   1.000  O 
  O14      1.0000 0.81829  0.68220  0.39779  Biso   1.000  O 
  O15      1.0000 0.81870  0.81790  0.63545  Biso   1.000  O 
  O16      1.0000 0.18130  0.18210  0.36455  Biso   1.000  O 
